Networks/MV_SemiUrban/SemiUrban_LinesLaterals4.txt
New Line.Feeder4.1      Bus1=Main_Busbar Bus2=4_1       Length=1    units=m Linecode=Line_MV_185
New Line.Feeder4.2      Bus1=4_1         Bus2=4_2       Length=1    units=m Linecode=Line_MV_185
New Line.Feeder4.3      Bus1=4_2         Bus2=4_3       Length=1    units=m Linecode=Line_MV_185
New Line.Feeder4.4      Bus1=4_3         Bus2=4_4       Length=1    units=m Linecode=Line_MV_185
New Line.Feeder4.5      Bus1=4_4         Bus2=4_5       Length=1    units=m Linecode=Line_MV_185
New Line.Feeder4.6      Bus1=4_5         Bus2=4_6       Length=1    units=m Linecode=Line_MV_185
New Line.Feeder4.7      Bus1=4_6         Bus2=4_7       Length=1    units=m Linecode=Line_MV_185
New Line.Feeder4.8      Bus1=4_7         Bus2=4_8       Length=1    units=m Linecode=Line_MV_185
New Line.Feeder4.9      Bus1=4_8         Bus2=4_9       Length=1    units=m Linecode=Line_MV_185
New Line.Feeder4.10     Bus1=4_9         Bus2=4_10      Length=1    units=m Linecode=Line_MV_185
New Line.Feeder4.11	Bus1=4_10       Bus2=4_11	Length=1    units=m Linecode=Line_MV_185
New Line.Feeder4.12	Bus1=4_11	Bus2=4_12	Length=1    units=m Linecode=Line_MV_185
New Line.Feeder4.13	Bus1=4_12	Bus2=4_13	Length=1	units=m	Linecode=Line_MV_185
New Line.Feeder4.14	Bus1=4_13	Bus2=4_14	Length=1	units=m	Linecode=Line_MV_185
New Line.Feeder4.15	Bus1=4_14	Bus2=4_15	Length=1	units=m	Linecode=Line_MV_185
New Line.Feeder4.16	Bus1=4_15	Bus2=4_16	Length=1	units=m	Linecode=Line_MV_185
New Line.Feeder4.17	Bus1=4_16	Bus2=4_17	Length=1	units=m	Linecode=Line_MV_185
New Line.Feeder4.18	Bus1=4_17	Bus2=4_18	Length=1	units=m	Linecode=Line_MV_185
New Line.Feeder4.19	Bus1=4_18	Bus2=4_19	Length=1	units=m	Linecode=Line_MV_185
New Line.Feeder4.20	Bus1=4_19	Bus2=4_20	Length=1	units=m	Linecode=Line_MV_185
New Line.Feeder4.21	Bus1=4_20	Bus2=4_21	Length=1	units=m	Linecode=Line_MV_185
New Line.Feeder4.22	Bus1=4_21	Bus2=4_22	Length=1	units=m	Linecode=Line_MV_185
New Line.Feeder4.23	Bus1=4_22	Bus2=4_23	Length=1	units=m	Linecode=Line_MV_185
New Line.Feeder4.24	Bus1=4_23	Bus2=4_24	Length=1	units=m	Linecode=Line_MV_185
New Line.Feeder4.25	Bus1=4_24	Bus2=4_25	Length=1	units=m	Linecode=Line_MV_185
New Line.Feeder4.26	Bus1=4_25	Bus2=4_26	Length=1	units=m	Linecode=Line_MV_185
New Line.Feeder4.27	Bus1=4_26	Bus2=4_27	Length=1	units=m	Linecode=Line_MV_185
New Line.Feeder4.28	Bus1=4_27	Bus2=4_28	Length=1	units=m	Linecode=Line_MV_185
New Line.Feeder4.29	Bus1=4_28	Bus2=4_29	Length=1	units=m	Linecode=Line_MV_185
New Line.Feeder4.30	Bus1=4_29	Bus2=4_30	Length=1	units=m	Linecode=Line_MV_185
New Line.Feeder4.31	Bus1=4_30	Bus2=4_31	Length=1	units=m	Linecode=Line_MV_185
New Line.Feeder4.32	Bus1=4_31	Bus2=4_32	Length=1	units=m	Linecode=Line_MV_185
New Line.Feeder4.33	Bus1=4_32	Bus2=4_33	Length=1	units=m	Linecode=Line_MV_185
New Line.Feeder4.34	Bus1=4_33	Bus2=4_34	Length=1	units=m	Linecode=Line_MV_185
New Line.Feeder4.35	Bus1=4_34	Bus2=4_35	Length=1	units=m	Linecode=Line_MV_185
New Line.Feeder4.36	Bus1=4_35	Bus2=4_36	Length=1	units=m	Linecode=Line_MV_185
New Line.Feeder4.37	Bus1=4_36	Bus2=4_37	Length=1	units=m	Linecode=Line_MV_185
New Line.Feeder4.38	Bus1=4_37	Bus2=4_38	Length=1	units=m	Linecode=Line_MV_185
New Line.Feeder4.39	Bus1=4_38	Bus2=4_39	Length=1	units=m	Linecode=Line_MV_185
New Line.Feeder4.40	Bus1=4_39	Bus2=4_40	Length=1	units=m	Linecode=Line_MV_185
New Line.Feeder4.41	Bus1=4_40	Bus2=4_41	Length=1	units=m	Linecode=Line_MV_185
New Line.Feeder4.42	Bus1=4_41	Bus2=4_42	Length=1	units=m	Linecode=Line_MV_185
New Line.Feeder4.43	Bus1=4_42	Bus2=4_43	Length=1	units=m	Linecode=Line_MV_185
New Line.Feeder4.44	Bus1=4_43	Bus2=4_44	Length=1	units=m	Linecode=Line_MV_185
New Line.Feeder4.45	Bus1=4_44	Bus2=4_45	Length=1	units=m	Linecode=Line_MV_185
New Line.Feeder4.46	Bus1=4_45	Bus2=4_46	Length=1	units=m	Linecode=Line_MV_185
New Line.Feeder4.47	Bus1=4_46	Bus2=4_47	Length=1	units=m	Linecode=Line_MV_185
New Line.Feeder4.48	Bus1=4_47	Bus2=4_48	Length=1	units=m	Linecode=Line_MV_185


New Line.Lateral4_start_1	Bus1=4_47	Bus2=4_49	Length=1 units=m	Linecode=Line_MV_95
New Line.Lateral4.50	Bus1=4_49	Bus2=4_50	Length=1	units=m	Linecode=Line_MV_95
New Line.Lateral4.51	Bus1=4_50	Bus2=4_51	Length=1	units=m	Linecode=Line_MV_95
New Line.Lateral4.52	Bus1=4_51	Bus2=4_52	Length=1	units=m	Linecode=Line_MV_95
New Line.Lateral4.53	Bus1=4_52	Bus2=4_53	Length=1	units=m	Linecode=Line_MV_95
New Line.Lateral4.54	Bus1=4_53	Bus2=4_54	Length=1	units=m	Linecode=Line_MV_95
New Line.Lateral4.55	Bus1=4_54	Bus2=4_55	Length=1	units=m	Linecode=Line_MV_95
New Line.Lateral4.56	Bus1=4_55	Bus2=4_56	Length=1	units=m	Linecode=Line_MV_95
New Line.Lateral4.57	Bus1=4_56	Bus2=4_57	Length=1	units=m	Linecode=Line_MV_95
New Line.Lateral4.58	Bus1=4_57	Bus2=4_58	Length=1	units=m	Linecode=Line_MV_95
New Line.Lateral4.59	Bus1=4_58	Bus2=4_59	Length=1	units=m	Linecode=Line_MV_95
New Line.Lateral4.60	Bus1=4_59	Bus2=4_60	Length=1	units=m	Linecode=Line_MV_95
New Line.Lateral4.61	Bus1=4_60       Bus2=4_61	Length=1        units=m Linecode=Line_MV_95
New Line.Lateral4.62	Bus1=4_61	Bus2=4_62	Length=1	units=m	Linecode=Line_MV_95
New Line.Lateral4.63	Bus1=4_62	Bus2=4_63	Length=1	units=m	Linecode=Line_MV_95
New Line.Lateral4.64	Bus1=4_63	Bus2=4_64	Length=1	units=m	Linecode=Line_MV_95
New Line.Lateral4.65	Bus1=4_64	Bus2=4_65	Length=1	units=m	Linecode=Line_MV_95
New Line.Lateral4.66	Bus1=4_65	Bus2=4_66	Length=1	units=m	Linecode=Line_MV_95
New Line.Lateral4.67	Bus1=4_66	Bus2=4_67	Length=1	units=m	Linecode=Line_MV_95
New Line.Lateral4.68	Bus1=4_67	Bus2=4_68	Length=1	units=m	Linecode=Line_MV_95
New Line.Lateral4.69	Bus1=4_68	Bus2=4_69	Length=1	units=m	Linecode=Line_MV_95
New Line.Lateral4.70	Bus1=4_69	Bus2=4_70	Length=1	units=m	Linecode=Line_MV_95
New Line.Lateral4.71	Bus1=4_70	Bus2=4_71	Length=1	units=m	Linecode=Line_MV_95
New Line.Lateral4.72	Bus1=4_71	Bus2=4_72	Length=1	units=m	Linecode=Line_MV_95
New Line.Lateral4.73	Bus1=4_72	Bus2=4_73	Length=1	units=m	Linecode=Line_MV_95
New Line.Lateral4.74	Bus1=4_73	Bus2=4_74	Length=1	units=m	Linecode=Line_MV_95
New Line.Lateral4.75	Bus1=4_74	Bus2=4_75	Length=1	units=m	Linecode=Line_MV_95
New Line.Lateral4.76	Bus1=4_75	Bus2=4_76	Length=1	units=m	Linecode=Line_MV_95
New Line.Lateral4.77	Bus1=4_76	Bus2=4_77	Length=1	units=m	Linecode=Line_MV_95
New Line.Lateral4.78	Bus1=4_77	Bus2=4_78	Length=1	units=m	Linecode=Line_MV_95
New Line.Lateral4.79	Bus1=4_78	Bus2=4_79	Length=1	units=m	Linecode=Line_MV_95
New Line.Lateral4.80	Bus1=4_79	Bus2=4_80	Length=1	units=m	Linecode=Line_MV_95
New Line.Lateral4.81	Bus1=4_80	Bus2=4_81	Length=1	units=m	Linecode=Line_MV_95
New Line.Lateral4.82	Bus1=4_81	Bus2=4_82	Length=1	units=m	Linecode=Line_MV_95
New Line.Lateral4.83	Bus1=4_82	Bus2=4_83	Length=1	units=m	Linecode=Line_MV_95
New Line.Lateral4.84	Bus1=4_83	Bus2=4_84	Length=1	units=m	Linecode=Line_MV_95
New Line.Lateral4.85	Bus1=4_84	Bus2=4_85	Length=1	units=m	Linecode=Line_MV_95
New Line.Lateral4.86	Bus1=4_85	Bus2=4_86	Length=1	units=m	Linecode=Line_MV_95
New Line.Lateral4.87	Bus1=4_86	Bus2=4_87	Length=1	units=m	Linecode=Line_MV_95
New Line.Lateral4.88	Bus1=4_87	Bus2=4_88	Length=1	units=m	Linecode=Line_MV_95
New Line.Lateral4.89	Bus1=4_88	Bus2=4_89	Length=1	units=m	Linecode=Line_MV_95
New Line.Lateral4.90	Bus1=4_89	Bus2=4_90	Length=1	units=m	Linecode=Line_MV_95 
New Line.Lateral4.91	Bus1=4_90       Bus2=4_91	Length=1        units=m Linecode=Line_MV_95
New Line.Lateral4.92	Bus1=4_91	Bus2=4_92	Length=1	units=m	Linecode=Line_MV_95
New Line.Lateral4.93	Bus1=4_92	Bus2=4_93	Length=1	units=m	Linecode=Line_MV_95
New Line.Lateral4.94	Bus1=4_93	Bus2=4_94	Length=1	units=m	Linecode=Line_MV_95
New Line.Lateral4.95	Bus1=4_94	Bus2=4_95	Length=1	units=m	Linecode=Line_MV_95
New Line.Lateral4.96	Bus1=4_95	Bus2=4_96	Length=1	units=m	Linecode=Line_MV_95
New Line.Lateral4.97	Bus1=4_96       Bus2=4_97	Length=1	units=m	Linecode=Line_MV_95
New Line.Lateral4.98	Bus1=4_97       Bus2=4_98	Length=1	units=m	Linecode=Line_MV_95
New Line.Lateral4.99	Bus1=4_98       Bus2=4_99       Length=1	units=m	Linecode=Line_MV_95
New Line.Lateral4.100	Bus1=4_99       Bus2=4_100      Length=1        units=m Linecode=Line_MV_95
New Line.Lateral4.101	Bus1=4_100      Bus2=4_101      Length=1        units=m Linecode=Line_MV_95
New Line.Lateral4.102	Bus1=4_101      Bus2=4_102      Length=1        units=m Linecode=Line_MV_95
New Line.Lateral4.103	Bus1=4_102      Bus2=4_103      Length=1        units=m Linecode=Line_MV_95
New Line.Lateral4.104	Bus1=4_103      Bus2=4_104      Length=1        units=m Linecode=Line_MV_95
New Line.Lateral4.105	Bus1=4_104      Bus2=4_105      Length=1        units=m Linecode=Line_MV_95
New Line.Lateral4.106	Bus1=4_105 Bus2=4_106 Length=1  units=m Linecode=Line_MV_95
New Line.Lateral4.107	Bus1=4_106 Bus2=4_107 Length=1  units=m Linecode=Line_MV_95
New Line.Lateral4.108	Bus1=4_107 Bus2=4_108 Length=1	units=m	Linecode=Line_MV_95
New Line.Lateral4.109	Bus1=4_108 Bus2=4_109 Length=1	units=m	Linecode=Line_MV_95
New Line.Lateral4.110	Bus1=4_109 Bus2=4_110 Length=1	units=m	Linecode=Line_MV_95
New Line.Lateral4.111	Bus1=4_110 Bus2=4_111 Length=1	units=m	Linecode=Line_MV_95
New Line.Lateral4.112	Bus1=4_111 Bus2=4_112 Length=1	units=m	Linecode=Line_MV_95
New Line.Lateral4.113	Bus1=4_112 Bus2=4_113 Length=1	units=m	Linecode=Line_MV_95
New Line.Lateral4.114	Bus1=4_113 Bus2=4_114 Length=1	units=m	Linecode=Line_MV_95
New Line.Lateral4.115	Bus1=4_114 Bus2=4_115 Length=1	units=m	Linecode=Line_MV_95
New Line.Lateral4.116	Bus1=4_115 Bus2=4_116 Length=1	units=m	Linecode=Line_MV_95
New Line.Lateral4.117	Bus1=4_116 Bus2=4_117 Length=1	units=m	Linecode=Line_MV_95
New Line.Lateral4.118	Bus1=4_117 Bus2=4_118 Length=1	units=m	Linecode=Line_MV_95
New Line.Lateral4.119	Bus1=4_118 Bus2=4_119 Length=1	units=m	Linecode=Line_MV_95
New Line.Lateral4.120	Bus1=4_119 Bus2=4_120 Length=1	units=m	Linecode=Line_MV_95
New Line.Lateral4.121	Bus1=4_120 Bus2=4_121 Length=1  units=m Linecode=Line_MV_95
New Line.Lateral4.122	Bus1=4_121 Bus2=4_122 Length=1	units=m	Linecode=Line_MV_95
New Line.Lateral4.123	Bus1=4_122 Bus2=4_123 Length=1	units=m	Linecode=Line_MV_95
New Line.Lateral4.124	Bus1=4_123 Bus2=4_124 Length=1	units=m	Linecode=Line_MV_95
New Line.Lateral4.125	Bus1=4_124 Bus2=4_125 Length=1	units=m	Linecode=Line_MV_95
New Line.Lateral4.126	Bus1=4_125 Bus2=4_126 Length=1	units=m	Linecode=Line_MV_95
New Line.Lateral4.127	Bus1=4_126 Bus2=4_127 Length=1	units=m	Linecode=Line_MV_95
New Line.Lateral4.128	Bus1=4_127 Bus2=4_128 Length=1	units=m	Linecode=Line_MV_95
New Line.Lateral4.129	Bus1=4_128 Bus2=4_129 Length=1	units=m	Linecode=Line_MV_95
New Line.Lateral4.130	Bus1=4_129 Bus2=4_130 Length=1	units=m	Linecode=Line_MV_95
New Line.Lateral4.131	Bus1=4_130 Bus2=4_131 Length=1	units=m	Linecode=Line_MV_95
New Line.Lateral4.132	Bus1=4_131 Bus2=4_132 Length=1	units=m	Linecode=Line_MV_95
New Line.Lateral4.133	Bus1=4_132 Bus2=4_133 Length=1	units=m	Linecode=Line_MV_95
New Line.Lateral4.134	Bus1=4_133 Bus2=4_134 Length=1	units=m	Linecode=Line_MV_95
New Line.Lateral4.135	Bus1=4_134 Bus2=4_135 Length=1	units=m	Linecode=Line_MV_95
New Line.Lateral4.136	Bus1=4_135 Bus2=4_136 Length=1	units=m	Linecode=Line_MV_95
New Line.Lateral4.137	Bus1=4_136 Bus2=4_137 Length=1	units=m	Linecode=Line_MV_95
New Line.Lateral4.138	Bus1=4_137 Bus2=4_138 Length=1	units=m	Linecode=Line_MV_95
New Line.Lateral4.139	Bus1=4_138 Bus2=4_139 Length=1	units=m	Linecode=Line_MV_95
New Line.Lateral4.140	Bus1=4_139 Bus2=4_140 Length=1	units=m	Linecode=Line_MV_95
New Line.Lateral4.141	Bus1=4_140 Bus2=4_141 Length=1	units=m	Linecode=Line_MV_95
New Line.Lateral4.142	Bus1=4_141 Bus2=4_142 Length=1	units=m	Linecode=Line_MV_95
New Line.Lateral4.143	Bus1=4_142 Bus2=4_143 Length=1	units=m	Linecode=Line_MV_95
New Line.Lateral4.144	Bus1=4_143 Bus2=4_144 Length=1	units=m	Linecode=Line_MV_95
New Line.Lateral4.145	Bus1=4_144 Bus2=4_145 Length=1	units=m	Linecode=Line_MV_95
New Line.Lateral4.146	Bus1=4_145 Bus2=4_146 Length=1	units=m	Linecode=Line_MV_95
New Line.Lateral4.147	Bus1=4_146 Bus2=4_147 Length=1	units=m	Linecode=Line_MV_95
New Line.Lateral4.148	Bus1=4_147 Bus2=4_148 Length=1	units=m	Linecode=Line_MV_95
New Line.Lateral4.149	Bus1=4_148 Bus2=4_149 Length=1	units=m	Linecode=Line_MV_95
New Line.Lateral4.150	Bus1=4_149 Bus2=4_150 Length=1	units=m	Linecode=Line_MV_95
New Line.Lateral4.151	Bus1=4_150 Bus2=4_151 Length=1  units=m Linecode=Line_MV_95
New Line.Lateral4.152	Bus1=4_151 Bus2=4_152 Length=1	units=m	Linecode=Line_MV_95
New Line.Lateral4.153	Bus1=4_152 Bus2=4_153 Length=1	units=m	Linecode=Line_MV_95
New Line.Lateral4.154	Bus1=4_153 Bus2=4_154 Length=1	units=m	Linecode=Line_MV_95
New Line.Lateral4.155	Bus1=4_154 Bus2=4_155 Length=1	units=m	Linecode=Line_MV_95
New Line.Lateral4.156	Bus1=4_155 Bus2=4_156 Length=1	units=m	Linecode=Line_MV_95
New Line.Lateral4.157	Bus1=4_156 Bus2=4_157 Length=1	units=m	Linecode=Line_MV_95
New Line.Lateral4.158	Bus1=4_157 Bus2=4_158 Length=1	units=m	Linecode=Line_MV_95
New Line.Lateral4.159	Bus1=4_158 Bus2=4_159 Length=1	units=m	Linecode=Line_MV_95
New Line.Lateral4.160	Bus1=4_159 Bus2=4_160 Length=1	units=m	Linecode=Line_MV_95
New Line.Lateral4.161	Bus1=4_160 Bus2=4_161 Length=1	units=m	Linecode=Line_MV_95
New Line.Lateral4.162	Bus1=4_161 Bus2=4_162 Length=1	units=m	Linecode=Line_MV_95
New Line.Lateral4.163	Bus1=4_162 Bus2=4_163 Length=1	units=m	Linecode=Line_MV_95
New Line.Lateral4.164	Bus1=4_163 Bus2=4_164 Length=1	units=m	Linecode=Line_MV_95
New Line.Lateral4.165	Bus1=4_164 Bus2=4_165 Length=1	units=m	Linecode=Line_MV_95
New Line.Lateral4.166	Bus1=4_165 Bus2=4_166 Length=1	units=m	Linecode=Line_MV_95
New Line.Lateral4.167	Bus1=4_166 Bus2=4_167 Length=1	units=m	Linecode=Line_MV_95
New Line.Lateral4.168	Bus1=4_167 Bus2=4_168 Length=1	units=m	Linecode=Line_MV_95
New Line.Lateral4.169	Bus1=4_168 Bus2=4_169 Length=1	units=m	Linecode=Line_MV_95
New Line.Lateral4.170	Bus1=4_169 Bus2=4_170 Length=1	units=m	Linecode=Line_MV_95
New Line.Lateral4.171	Bus1=4_170 Bus2=4_171 Length=1	units=m	Linecode=Line_MV_95
New Line.Lateral4.172	Bus1=4_171 Bus2=4_172 Length=1	units=m	Linecode=Line_MV_95
New Line.Lateral4.173	Bus1=4_172 Bus2=4_173 Length=1	units=m	Linecode=Line_MV_95
New Line.Lateral4.174	Bus1=4_173 Bus2=4_174 Length=1	units=m	Linecode=Line_MV_95
New Line.Lateral4.175	Bus1=4_174 Bus2=4_175 Length=1	units=m	Linecode=Line_MV_95
New Line.Lateral4.176	Bus1=4_175 Bus2=4_176 Length=1	units=m	Linecode=Line_MV_95
New Line.Lateral4.177 Bus1=4_176 Bus2=4_177 units=m Linecode=Line_MV_95 Length=1
New Line.Lateral4.178 Bus1=4_177 Bus2=4_178 units=m Linecode=Line_MV_95 Length=1 
New Line.Lateral4.179 Bus1=4_178 Bus2=4_179 units=m Linecode=Line_MV_95 Length=1
New Line.Lateral4.180 Bus1=4_179 Bus2=4_180 units=m Linecode=Line_MV_95 Length=1 
New Line.Lateral4.181 Bus1=4_180 Bus2=4_181 units=m Linecode=Line_MV_95 Length=1 
New Line.Lateral4.182 Bus1=4_181 Bus2=4_182 units=m Linecode=Line_MV_95 Length=1 
New Line.Lateral4.183 Bus1=4_182 Bus2=4_183 units=m Linecode=Line_MV_95 Length=1 
New Line.Lateral4.184 Bus1=4_183 Bus2=4_184 units=m Linecode=Line_MV_95 Length=1 
New Line.Lateral4.185 Bus1=4_184 Bus2=4_185 units=m Linecode=Line_MV_95 Length=1 
New Line.Lateral4.186 Bus1=4_185 Bus2=4_186 units=m Linecode=Line_MV_95 Length=1 
New Line.Lateral4.187 Bus1=4_186 Bus2=4_187 units=m Linecode=Line_MV_95 Length=1 
New Line.Lateral4.188 Bus1=4_187 Bus2=4_188 units=m Linecode=Line_MV_95 Length=1 
New Line.Lateral4.189 Bus1=4_188 Bus2=4_189 units=m Linecode=Line_MV_95 Length=1 
New Line.Lateral4.190 Bus1=4_189 Bus2=4_190 units=m Linecode=Line_MV_95 Length=1 
New Line.Lateral4.191 Bus1=4_190 Bus2=4_191 units=m Linecode=Line_MV_95 Length=1 
New Line.Lateral4.192 Bus1=4_191 Bus2=4_192 units=m Linecode=Line_MV_95 Length=1 
New Line.Lateral4.193 Bus1=4_192 Bus2=4_193 units=m Linecode=Line_MV_95 Length=1 
New Line.Lateral4.194 Bus1=4_193 Bus2=4_194 units=m Linecode=Line_MV_95 Length=1 
New Line.Lateral4.195 Bus1=4_194 Bus2=4_195 units=m Linecode=Line_MV_95 Length=1 
New Line.Lateral4.196 Bus1=4_195 Bus2=4_196 units=m Linecode=Line_MV_95 Length=1 
New Line.Lateral4.197 Bus1=4_196 Bus2=4_197 units=m Linecode=Line_MV_95 Length=1 
New Line.Lateral4.198 Bus1=4_197 Bus2=4_198 units=m Linecode=Line_MV_95 Length=1 
New Line.Lateral4.199 Bus1=4_198 Bus2=4_199 units=m Linecode=Line_MV_95 Length=1 
New Line.Lateral4.200 Bus1=4_199 Bus2=4_200 units=m Linecode=Line_MV_95 Length=1 
New Line.Lateral4.201 Bus1=4_200 Bus2=4_201 units=m Linecode=Line_MV_95 Length=1 
New Line.Lateral4.202 Bus1=4_201 Bus2=4_202 units=m Linecode=Line_MV_95 Length=1 
New Line.Lateral4.203 Bus1=4_202 Bus2=4_203 units=m Linecode=Line_MV_95 Length=1 
New Line.Lateral4.204 Bus1=4_203 Bus2=4_204 units=m Linecode=Line_MV_95 Length=1 
New Line.Lateral4.205 Bus1=4_204 Bus2=4_205 units=m Linecode=Line_MV_95 Length=1 
New Line.Lateral4.206 Bus1=4_205 Bus2=4_206 units=m Linecode=Line_MV_95 Length=1 
New Line.Lateral4.207 Bus1=4_206 Bus2=4_207 units=m Linecode=Line_MV_95 Length=1 
New Line.Lateral4.208 Bus1=4_207 Bus2=4_208 units=m Linecode=Line_MV_95 Length=1 
New Line.Lateral4.209 Bus1=4_208 Bus2=4_209 units=m Linecode=Line_MV_95 Length=1 
New Line.Lateral4.210 Bus1=4_209 Bus2=4_210 units=m Linecode=Line_MV_95 Length=1 
New Line.Lateral4.211 Bus1=4_210 Bus2=4_211 units=m Linecode=Line_MV_95 Length=1 
New Line.Lateral4.212 Bus1=4_211 Bus2=4_212 units=m Linecode=Line_MV_95 Length=1 
New Line.Lateral4.213 Bus1=4_212 Bus2=4_213 units=m Linecode=Line_MV_95 Length=1 
New Line.Lateral4.214 Bus1=4_213 Bus2=4_214 units=m Linecode=Line_MV_95 Length=1 
New Line.Lateral4.215 Bus1=4_214 Bus2=4_215 units=m Linecode=Line_MV_95 Length=1 
New Line.Lateral4.216 Bus1=4_215 Bus2=4_216 units=m Linecode=Line_MV_95 Length=1 
New Line.Lateral4.217 Bus1=4_216 Bus2=4_217 units=m Linecode=Line_MV_95 Length=1 
New Line.Lateral4.218 Bus1=4_217 Bus2=4_218 units=m Linecode=Line_MV_95 Length=1 
New Line.Lateral4.219 Bus1=4_218 Bus2=4_219 units=m Linecode=Line_MV_95 Length=1 
New Line.Lateral4.220 Bus1=4_219 Bus2=4_220 units=m Linecode=Line_MV_95 Length=1 
New Line.Lateral4.221 Bus1=4_220 Bus2=4_221 units=m Linecode=Line_MV_95 Length=1 
New Line.Lateral4.222 Bus1=4_221 Bus2=4_222 units=m Linecode=Line_MV_95 Length=1 
New Line.Lateral4.223 Bus1=4_222 Bus2=4_223 units=m Linecode=Line_MV_95 Length=1 
New Line.Lateral4.224 Bus1=4_223 Bus2=4_224 units=m Linecode=Line_MV_95 Length=1 
New Line.Lateral4.225 Bus1=4_224 Bus2=4_225 units=m Linecode=Line_MV_95 Length=1
New Line.Lateral4.226 Bus1=4_225 Bus2=4_226 units=m Linecode=Line_MV_95 Length=1 
New Line.Lateral4.227 Bus1=4_226 Bus2=4_227 units=m Linecode=Line_MV_95 Length=1 
New Line.Lateral4.228 Bus1=4_227 Bus2=4_228 units=m Linecode=Line_MV_95 Length=1 
New Line.Lateral4.229 Bus1=4_228 Bus2=4_229 units=m Linecode=Line_MV_95 Length=1 
New Line.Lateral4.230 Bus1=4_229 Bus2=4_230 units=m Linecode=Line_MV_95 Length=1 
New Line.Lateral4.231 Bus1=4_230 Bus2=4_231 units=m Linecode=Line_MV_95 Length=1 
New Line.Lateral4.232 Bus1=4_231 Bus2=4_232 units=m Linecode=Line_MV_95 Length=1 
New Line.Lateral4.233 Bus1=4_232 Bus2=4_233 units=m Linecode=Line_MV_95 Length=1 
New Line.Lateral4_end_1 Bus1=4_233 Bus2=4_234 units=m Linecode=Line_MV_95 Length=1


New Line.Feeder4.235 Bus1=4_48 Bus2=4_235 units=m Linecode=Line_MV_185 Length=1 
New Line.Feeder4.236 Bus1=4_235 Bus2=4_236 units=m Linecode=Line_MV_185 Length=1 
New Line.Feeder4.237 Bus1=4_235 Bus2=4_237 units=m Linecode=Line_MV_185 Length=1 
New Line.Feeder4.238 Bus1=4_237 Bus2=4_238 units=m Linecode=Line_MV_185 Length=1 
New Line.Feeder4.239 Bus1=4_238 Bus2=4_239 units=m Linecode=Line_MV_185 Length=1 
New Line.Feeder4.240 Bus1=4_239 Bus2=4_240 units=m Linecode=Line_MV_185 Length=1 
New Line.Feeder4.241 Bus1=4_240 Bus2=4_241 units=m Linecode=Line_MV_185 Length=1 
New Line.Feeder4.242 Bus1=4_241 Bus2=4_242 units=m Linecode=Line_MV_185 Length=1 
New Line.Feeder4.243 Bus1=4_242 Bus2=4_243 units=m Linecode=Line_MV_185 Length=1
New Line.Feeder4.244 Bus1=4_243 Bus2=4_244 units=m Linecode=Line_MV_185 Length=1 
New Line.Feeder4.245 Bus1=4_244 Bus2=4_245 units=m Linecode=Line_MV_185 Length=1 
New Line.Feeder4.246 Bus1=4_245 Bus2=4_246 units=m Linecode=Line_MV_185 Length=1
New Line.Feeder4.247 Bus1=4_246 Bus2=4_247 units=m Linecode=Line_MV_185 Length=1 
New Line.Feeder4.248 Bus1=4_247 Bus2=4_248 units=m Linecode=Line_MV_185 Length=1 
New Line.Feeder4.249 Bus1=4_248 Bus2=4_249 units=m Linecode=Line_MV_185 Length=1 
New Line.Feeder4.250 Bus1=4_249 Bus2=4_250 units=m Linecode=Line_MV_185 Length=1 
New Line.Feeder4.251 Bus1=4_250 Bus2=4_251 units=m Linecode=Line_MV_185 Length=1 
New Line.Feeder4.252 Bus1=4_251 Bus2=4_252 units=m Linecode=Line_MV_185 Length=1 
New Line.Feeder4.253 Bus1=4_252 Bus2=4_253 units=m Linecode=Line_MV_185 Length=1 
New Line.Feeder4.254 Bus1=4_253 Bus2=4_254 units=m Linecode=Line_MV_185 Length=1 
New Line.Feeder4.255 Bus1=4_254 Bus2=4_255 units=m Linecode=Line_MV_185 Length=1 
New Line.Feeder4.256 Bus1=4_255 Bus2=4_256 units=m Linecode=Line_MV_185 Length=1 
New Line.Feeder4.257 Bus1=4_256 Bus2=4_257 units=m Linecode=Line_MV_185 Length=1 
New Line.Feeder4.258 Bus1=4_257 Bus2=4_258 units=m Linecode=Line_MV_185 Length=1 
New Line.Feeder4.259 Bus1=4_258 Bus2=4_259 units=m Linecode=Line_MV_185 Length=1 
New Line.Feeder4.260 Bus1=4_259 Bus2=4_260 units=m Linecode=Line_MV_185 Length=1 
New Line.Feeder4.261 Bus1=4_260 Bus2=4_261 units=m Linecode=Line_MV_185 Length=1 
New Line.Feeder4.262 Bus1=4_261 Bus2=4_262 units=m Linecode=Line_MV_185 Length=1 
New Line.Feeder4.263 Bus1=4_262 Bus2=4_263 units=m Linecode=Line_MV_185 Length=1 
New Line.Feeder4.264 Bus1=4_263 Bus2=4_264 units=m Linecode=Line_MV_185 Length=1 
New Line.Feeder4.265 Bus1=4_264 Bus2=4_265 units=m Linecode=Line_MV_185 Length=1 
New Line.Feeder4.266 Bus1=4_265 Bus2=4_266 units=m Linecode=Line_MV_185 Length=1 
New Line.Feeder4.267 Bus1=4_266 Bus2=4_267 units=m Linecode=Line_MV_185 Length=1 
New Line.Feeder4.268 Bus1=4_267 Bus2=4_268 units=m Linecode=Line_MV_185 Length=1 
New Line.Feeder4.269 Bus1=4_268 Bus2=4_269 units=m Linecode=Line_MV_185 Length=1 
New Line.Feeder4.270 Bus1=4_269 Bus2=4_270 units=m Linecode=Line_MV_185 Length=1
New Line.Feeder4.271 Bus1=4_270 Bus2=4_271 units=m Linecode=Line_MV_185 Length=1 
New Line.Feeder4.272 Bus1=4_271 Bus2=4_272 units=m Linecode=Line_MV_185 Length=1 
New Line.Feeder4.273 Bus1=4_272 Bus2=4_273 units=m Linecode=Line_MV_185 Length=1 
New Line.Feeder4.274 Bus1=4_273 Bus2=4_274 units=m Linecode=Line_MV_185 Length=1 
New Line.Feeder4.275 Bus1=4_274 Bus2=4_275 units=m Linecode=Line_MV_185 Length=1 
New Line.Feeder4.276 Bus1=4_275 Bus2=4_276 units=m Linecode=Line_MV_185 Length=1 
New Line.Feeder4.277 Bus1=4_276 Bus2=4_277 units=m Linecode=Line_MV_185 Length=1
New Line.Feeder4.278 Bus1=4_277 Bus2=4_278 units=m Linecode=Line_MV_185 Length=1 
New Line.Feeder4.279 Bus1=4_278 Bus2=4_279 units=m Linecode=Line_MV_185 Length=1 
New Line.Feeder4.280 Bus1=4_279 Bus2=4_280 units=m Linecode=Line_MV_185 Length=1 
New Line.Feeder4.281 Bus1=4_280 Bus2=4_281 units=m Linecode=Line_MV_185 Length=1 
New Line.Feeder4.282 Bus1=4_281 Bus2=4_282 units=m Linecode=Line_MV_185 Length=1 
New Line.Feeder4.283 Bus1=4_282 Bus2=4_283 units=m Linecode=Line_MV_185 Length=1 
New Line.Feeder4.284 Bus1=4_283 Bus2=4_284 units=m Linecode=Line_MV_185 Length=1 
New Line.Feeder4.285 Bus1=4_284 Bus2=4_285 units=m Linecode=Line_MV_185 Length=1 
New Line.Feeder4.286 Bus1=4_285 Bus2=4_286 units=m Linecode=Line_MV_185 Length=1 
New Line.Feeder4.287 Bus1=4_286 Bus2=4_287 units=m Linecode=Line_MV_185 Length=1 
New Line.Feeder4.288 Bus1=4_287 Bus2=4_288 units=m Linecode=Line_MV_185 Length=1 
New Line.Feeder4.289 Bus1=4_288 Bus2=4_289 units=m Linecode=Line_MV_185 Length=1 
New Line.Feeder4.290 Bus1=4_289 Bus2=4_290 units=m Linecode=Line_MV_185 Length=1 
New Line.Feeder4.291 Bus1=4_290 Bus2=4_291 units=m Linecode=Line_MV_185 Length=1 
New Line.Feeder4.292 Bus1=4_291 Bus2=4_292 units=m Linecode=Line_MV_185 Length=1 
New Line.Feeder4.293 Bus1=4_292 Bus2=4_293 units=m Linecode=Line_MV_185 Length=1 
New Line.Feeder4.294 Bus1=4_293 Bus2=4_294 units=m Linecode=Line_MV_185 Length=1 
New Line.Feeder4.295 Bus1=4_294 Bus2=4_295 units=m Linecode=Line_MV_185 Length=1 
New Line.Feeder4.296 Bus1=4_295 Bus2=4_296 units=m Linecode=Line_MV_185 Length=1 
New Line.Feeder4.297 Bus1=4_296 Bus2=4_297 units=m Linecode=Line_MV_185 Length=1 
New Line.Feeder4.298 Bus1=4_297 Bus2=4_298 units=m Linecode=Line_MV_185 Length=1 
New Line.Feeder4.299 Bus1=4_298 Bus2=4_299 units=m Linecode=Line_MV_185 Length=1 
New Line.Feeder4.300 Bus1=4_299 Bus2=4_300 units=m Linecode=Line_MV_185 Length=1 
New Line.Feeder4.301 Bus1=4_300 Bus2=4_301 units=m Linecode=Line_MV_185 Length=1 
New Line.Feeder4.302 Bus1=4_301 Bus2=4_302 units=m Linecode=Line_MV_185 Length=1 
New Line.Feeder4.303 Bus1=4_302 Bus2=4_303 units=m Linecode=Line_MV_185 Length=1 
New Line.Feeder4.304 Bus1=4_303 Bus2=4_304 units=m Linecode=Line_MV_185 Length=1 
New Line.Feeder4.305 Bus1=4_304 Bus2=4_305 units=m Linecode=Line_MV_185 Length=1 
New Line.Feeder4.306 Bus1=4_305 Bus2=4_306 units=m Linecode=Line_MV_185 Length=1 
New Line.Feeder4.307 Bus1=4_306 Bus2=4_307 units=m Linecode=Line_MV_185 Length=1 
New Line.Feeder4.308 Bus1=4_307 Bus2=4_308 units=m Linecode=Line_MV_185 Length=1 
New Line.Feeder4.309 Bus1=4_308 Bus2=4_309 units=m Linecode=Line_MV_185 Length=1 
New Line.Feeder4.310 Bus1=4_309 Bus2=4_310 units=m Linecode=Line_MV_185 Length=1 
New Line.Feeder4.311 Bus1=4_310 Bus2=4_311 units=m Linecode=Line_MV_185 Length=1 
New Line.Feeder4.312 Bus1=4_311 Bus2=4_312 units=m Linecode=Line_MV_185 Length=1 
New Line.Feeder4.313 Bus1=4_312 Bus2=4_313 units=m Linecode=Line_MV_185 Length=1 
New Line.Feeder4.314 Bus1=4_313 Bus2=4_314 units=m Linecode=Line_MV_185 Length=1 
New Line.Feeder4.315 Bus1=4_314 Bus2=4_315 units=m Linecode=Line_MV_185 Length=1
New Line.Feeder4.316 Bus1=4_315 Bus2=4_316 units=m Linecode=Line_MV_185 Length=1 
New Line.Feeder4.317 Bus1=4_316 Bus2=4_317 units=m Linecode=Line_MV_185 Length=1 
New Line.Feeder4.318 Bus1=4_317 Bus2=4_318 units=m Linecode=Line_MV_185 Length=1 
New Line.Feeder4.319 Bus1=4_318 Bus2=4_319 units=m Linecode=Line_MV_185 Length=1 
New Line.Feeder4.320 Bus1=4_319 Bus2=4_320 units=m Linecode=Line_MV_185 Length=1 
New Line.Feeder4.321 Bus1=4_320 Bus2=4_321 units=m Linecode=Line_MV_185 Length=1 
New Line.Feeder4.322 Bus1=4_321 Bus2=4_322 units=m Linecode=Line_MV_185 Length=1 
New Line.Feeder4.323 Bus1=4_322 Bus2=4_323 units=m Linecode=Line_MV_185 Length=1 
New Line.Feeder4.324 Bus1=4_323 Bus2=4_324 units=m Linecode=Line_MV_185 Length=1 
New Line.Feeder4.325 Bus1=4_324 Bus2=4_325 units=m Linecode=Line_MV_185 Length=1 
New Line.Feeder4.326 Bus1=4_325 Bus2=4_326 units=m Linecode=Line_MV_185 Length=1 
New Line.Feeder4.327 Bus1=4_326 Bus2=4_327 units=m Linecode=Line_MV_185 Length=1 
New Line.Feeder4.328 Bus1=4_327 Bus2=4_328 units=m Linecode=Line_MV_185 Length=1 
New Line.Feeder4.329 Bus1=4_328 Bus2=4_329 units=m Linecode=Line_MV_185 Length=1
 
New Line.Lateral4_start_2 Bus1=4_328 Bus2=4_330 units=m Linecode=Line_MV_95 Length=1
New Line.Lateral4.331 Bus1=4_330 Bus2=4_331 units=m Linecode=Line_MV_95 Length=1 
New Line.Lateral4.332 Bus1=4_331 Bus2=4_332 units=m Linecode=Line_MV_95 Length=1 
New Line.Lateral4.333 Bus1=4_332 Bus2=4_333 units=m Linecode=Line_MV_95 Length=1 
New Line.Lateral4.334 Bus1=4_333 Bus2=4_334 units=m Linecode=Line_MV_95 Length=1
New Line.Lateral4.335 Bus1=4_334 Bus2=4_335 units=m Linecode=Line_MV_95 Length=1 
New Line.Lateral4.336 Bus1=4_335 Bus2=4_336 units=m Linecode=Line_MV_95 Length=1 
New Line.Lateral4.337 Bus1=4_336 Bus2=4_337 units=m Linecode=Line_MV_95 Length=1 
New Line.Lateral4.338 Bus1=4_337 Bus2=4_338 units=m Linecode=Line_MV_95 Length=1 
New Line.Lateral4.339 Bus1=4_338 Bus2=4_339 units=m Linecode=Line_MV_95 Length=1 
New Line.Lateral4.340 Bus1=4_339 Bus2=4_340 units=m Linecode=Line_MV_95 Length=1 
New Line.Lateral4.341 Bus1=4_340 Bus2=4_341 units=m Linecode=Line_MV_95 Length=1 
New Line.Lateral4.342 Bus1=4_341 Bus2=4_342 units=m Linecode=Line_MV_95 Length=1 
New Line.Lateral4.343 Bus1=4_342 Bus2=4_343 units=m Linecode=Line_MV_95 Length=1 
New Line.Lateral4.344 Bus1=4_343 Bus2=4_344 units=m Linecode=Line_MV_95 Length=1 
New Line.Lateral4.345 Bus1=4_344 Bus2=4_345 units=m Linecode=Line_MV_95 Length=1 
New Line.Lateral4.346 Bus1=4_345 Bus2=4_346 units=m Linecode=Line_MV_95 Length=1 
New Line.Lateral4.347 Bus1=4_346 Bus2=4_347 units=m Linecode=Line_MV_95 Length=1 
New Line.Lateral4.348 Bus1=4_347 Bus2=4_348 units=m Linecode=Line_MV_95 Length=1 
New Line.Lateral4.349 Bus1=4_348 Bus2=4_349 units=m Linecode=Line_MV_95 Length=1
New Line.Lateral4.350 Bus1=4_349 Bus2=4_350 units=m Linecode=Line_MV_95 Length=1 
New Line.Lateral4.351 Bus1=4_350 Bus2=4_351 units=m Linecode=Line_MV_95 Length=1 
New Line.Lateral4.352 Bus1=4_351 Bus2=4_352 units=m Linecode=Line_MV_95 Length=1 
New Line.Lateral4.353 Bus1=4_352 Bus2=4_353 units=m Linecode=Line_MV_95 Length=1 
New Line.Lateral4.354 Bus1=4_353 Bus2=4_354 units=m Linecode=Line_MV_95 Length=1 
New Line.Lateral4.355 Bus1=4_354 Bus2=4_355 units=m Linecode=Line_MV_95 Length=1 
New Line.Lateral4.356 Bus1=4_355 Bus2=4_356 units=m Linecode=Line_MV_95 Length=1 
New Line.Lateral4.357 Bus1=4_356 Bus2=4_357 units=m Linecode=Line_MV_95 Length=1 
New Line.Lateral4.358 Bus1=4_357 Bus2=4_358 units=m Linecode=Line_MV_95 Length=1 
New Line.Lateral4.359 Bus1=4_358 Bus2=4_359 units=m Linecode=Line_MV_95 Length=1 
New Line.Lateral4.360 Bus1=4_359 Bus2=4_360 units=m Linecode=Line_MV_95 Length=1 
New Line.Lateral4.361 Bus1=4_360 Bus2=4_361 units=m Linecode=Line_MV_95 Length=1 
New Line.Lateral4.362 Bus1=4_361 Bus2=4_362 units=m Linecode=Line_MV_95 Length=1 
New Line.Lateral4.363 Bus1=4_362 Bus2=4_363 units=m Linecode=Line_MV_95 Length=1
New Line.Lateral4.364 Bus1=4_363 Bus2=4_364 units=m Linecode=Line_MV_95 Length=1 
New Line.Lateral4.365 Bus1=4_364 Bus2=4_365 units=m Linecode=Line_MV_95 Length=1 
New Line.Lateral4.366 Bus1=4_365 Bus2=4_366 units=m Linecode=Line_MV_95 Length=1 
New Line.Lateral4.367 Bus1=4_366 Bus2=4_367 units=m Linecode=Line_MV_95 Length=1 
New Line.Lateral4.368 Bus1=4_367 Bus2=4_368 units=m Linecode=Line_MV_95 Length=1 
New Line.Lateral4.369 Bus1=4_368 Bus2=4_369 units=m Linecode=Line_MV_95 Length=1 
New Line.Lateral4.370 Bus1=4_369 Bus2=4_370 units=m Linecode=Line_MV_95 Length=1 
New Line.Lateral4.371 Bus1=4_370 Bus2=4_371 units=m Linecode=Line_MV_95 Length=1 
New Line.Lateral4.372 Bus1=4_371 Bus2=4_372 units=m Linecode=Line_MV_95 Length=1 
New Line.Lateral4.373 Bus1=4_372 Bus2=4_373 units=m Linecode=Line_MV_95 Length=1 
New Line.Lateral4.374 Bus1=4_373 Bus2=4_374 units=m Linecode=Line_MV_95 Length=1 
New Line.Lateral4.375 Bus1=4_374 Bus2=4_375 units=m Linecode=Line_MV_95 Length=1 
New Line.Lateral4.376 Bus1=4_375 Bus2=4_376 units=m Linecode=Line_MV_95 Length=1 
New Line.Lateral4.377 Bus1=4_376 Bus2=4_377 units=m Linecode=Line_MV_95 Length=1 
New Line.Lateral4.378 Bus1=4_377 Bus2=4_378 units=m Linecode=Line_MV_95 Length=1 
New Line.Lateral4.379 Bus1=4_378 Bus2=4_379 units=m Linecode=Line_MV_95 Length=1 
New Line.Lateral4.380 Bus1=4_379 Bus2=4_380 units=m Linecode=Line_MV_95 Length=1 
New Line.Lateral4.381 Bus1=4_380 Bus2=4_381 units=m Linecode=Line_MV_95 Length=1 
New Line.Lateral4.382 Bus1=4_381 Bus2=4_382 units=m Linecode=Line_MV_95 Length=1 
New Line.Lateral4.383 Bus1=4_382 Bus2=4_383 units=m Linecode=Line_MV_95 Length=1 
New Line.Lateral4.384 Bus1=4_383 Bus2=4_384 units=m Linecode=Line_MV_95 Length=1
New Line.Lateral4.385 Bus1=4_384 Bus2=4_385 units=m Linecode=Line_MV_95 Length=1 
New Line.Lateral4.386 Bus1=4_385 Bus2=4_386 units=m Linecode=Line_MV_95 Length=1 
New Line.Lateral4.387 Bus1=4_386 Bus2=4_387 units=m Linecode=Line_MV_95 Length=1 
New Line.Lateral4.388 Bus1=4_387 Bus2=4_388 units=m Linecode=Line_MV_95 Length=1 
New Line.Lateral4.389 Bus1=4_388 Bus2=4_389 units=m Linecode=Line_MV_95 Length=1 
New Line.Lateral4.390 Bus1=4_389 Bus2=4_390 units=m Linecode=Line_MV_95 Length=1 
New Line.Lateral4.391 Bus1=4_390 Bus2=4_391 units=m Linecode=Line_MV_95 Length=1 
New Line.Lateral4.392 Bus1=4_391 Bus2=4_392 units=m Linecode=Line_MV_95 Length=1 
New Line.Lateral4.393 Bus1=4_392 Bus2=4_393 units=m Linecode=Line_MV_95 Length=1 
New Line.Lateral4.394 Bus1=4_393 Bus2=4_394 units=m Linecode=Line_MV_95 Length=1 
New Line.Lateral4.395 Bus1=4_394 Bus2=4_395 units=m Linecode=Line_MV_95 Length=1 
New Line.Lateral4.396 Bus1=4_395 Bus2=4_396 units=m Linecode=Line_MV_95 Length=1 
New Line.Lateral4.397 Bus1=4_396 Bus2=4_397 units=m Linecode=Line_MV_95 Length=1
New Line.Lateral4.398 Bus1=4_397 Bus2=4_398 units=m Linecode=Line_MV_95 Length=1 
New Line.Lateral4.399 Bus1=4_398 Bus2=4_399 units=m Linecode=Line_MV_95 Length=1 
New Line.Lateral4.400 Bus1=4_399 Bus2=4_400 units=m Linecode=Line_MV_95 Length=1 
New Line.Lateral4.401 Bus1=4_400 Bus2=4_401 units=m Linecode=Line_MV_95 Length=1 
New Line.Lateral4.402 Bus1=4_401 Bus2=4_402 units=m Linecode=Line_MV_95 Length=1 
New Line.Lateral4.403 Bus1=4_402 Bus2=4_403 units=m Linecode=Line_MV_95 Length=1 
New Line.Lateral4.404 Bus1=4_403 Bus2=4_404 units=m Linecode=Line_MV_95 Length=1 
New Line.Lateral4.405 Bus1=4_404 Bus2=4_405 units=m Linecode=Line_MV_95 Length=1 
New Line.Lateral4.406 Bus1=4_405 Bus2=4_406 units=m Linecode=Line_MV_95 Length=1 
New Line.Lateral4.407 Bus1=4_406 Bus2=4_407 units=m Linecode=Line_MV_95 Length=1 
New Line.Lateral4.408 Bus1=4_407 Bus2=4_408 units=m Linecode=Line_MV_95 Length=1 
New Line.Lateral4.409 Bus1=4_408 Bus2=4_409 units=m Linecode=Line_MV_95 Length=1 
New Line.Lateral4.410 Bus1=4_409 Bus2=4_410 units=m Linecode=Line_MV_95 Length=1 
New Line.Lateral4.411 Bus1=4_410 Bus2=4_411 units=m Linecode=Line_MV_95 Length=1 
New Line.Lateral4.412 Bus1=4_411 Bus2=4_412 units=m Linecode=Line_MV_95 Length=1 
New Line.Lateral4.413 Bus1=4_412 Bus2=4_413 units=m Linecode=Line_MV_95 Length=1 
New Line.Lateral4.414 Bus1=4_413 Bus2=4_414 units=m Linecode=Line_MV_95 Length=1 
New Line.Lateral4.415 Bus1=4_414 Bus2=4_415 units=m Linecode=Line_MV_95 Length=1 
New Line.Lateral4.416 Bus1=4_415 Bus2=4_416 units=m Linecode=Line_MV_95 Length=1 
New Line.Lateral4.417 Bus1=4_416 Bus2=4_417 units=m Linecode=Line_MV_95 Length=1
New Line.Lateral4.418 Bus1=4_417 Bus2=4_418 units=m Linecode=Line_MV_95 Length=1 
New Line.Lateral4.419 Bus1=4_418 Bus2=4_419 units=m Linecode=Line_MV_95 Length=1 
New Line.Lateral4.420 Bus1=4_419 Bus2=4_420 units=m Linecode=Line_MV_95 Length=1 
New Line.Lateral4.421 Bus1=4_420 Bus2=4_421 units=m Linecode=Line_MV_95 Length=1 
New Line.Lateral4.422 Bus1=4_421 Bus2=4_422 units=m Linecode=Line_MV_95 Length=1 
New Line.Lateral4.423 Bus1=4_422 Bus2=4_423 units=m Linecode=Line_MV_95 Length=1 
New Line.Lateral4.424 Bus1=4_423 Bus2=4_424 units=m Linecode=Line_MV_95 Length=1
New Line.Lateral4.425 Bus1=4_424 Bus2=4_425 units=m Linecode=Line_MV_95 Length=1 
New Line.Lateral4.426 Bus1=4_425 Bus2=4_426 units=m Linecode=Line_MV_95 Length=1 
New Line.Lateral4.427 Bus1=4_426 Bus2=4_427 units=m Linecode=Line_MV_95 Length=1 
New Line.Lateral4.428 Bus1=4_427 Bus2=4_428 units=m Linecode=Line_MV_95 Length=1 
New Line.Lateral4.429 Bus1=4_428 Bus2=4_439 units=m Linecode=Line_MV_95 Length=1 
New Line.Lateral4.430 Bus1=4_429 Bus2=4_430 units=m Linecode=Line_MV_95 Length=1 
New Line.Lateral4.431 Bus1=4_430 Bus2=4_431 units=m Linecode=Line_MV_95 Length=1 
New Line.Lateral4.432 Bus1=4_431 Bus2=4_432 units=m Linecode=Line_MV_95 Length=1 
New Line.Lateral4.433 Bus1=4_432 Bus2=4_433 units=m Linecode=Line_MV_95 Length=1 
New Line.Lateral4.434 Bus1=4_433 Bus2=4_434 units=m Linecode=Line_MV_95 Length=1 
New Line.Lateral4.435 Bus1=4_434 Bus2=4_435 units=m Linecode=Line_MV_95 Length=1 
New Line.Lateral4.436 Bus1=4_435 Bus2=4_436 units=m Linecode=Line_MV_95 Length=1 
New Line.Lateral4.437 Bus1=4_436 Bus2=4_437 units=m Linecode=Line_MV_95 Length=1 
New Line.Lateral4.438 Bus1=4_437 Bus2=4_438 units=m Linecode=Line_MV_95 Length=1 
New Line.Lateral4.439 Bus1=4_438 Bus2=4_439 units=m Linecode=Line_MV_95 Length=1 
New Line.Lateral4.440 Bus1=4_439 Bus2=4_440 units=m Linecode=Line_MV_95 Length=1 
New Line.Lateral4.441 Bus1=4_440 Bus2=4_441 units=m Linecode=Line_MV_95 Length=1 
New Line.Lateral4.442 Bus1=4_441 Bus2=4_442 units=m Linecode=Line_MV_95 Length=1 
New Line.Lateral4.443 Bus1=4_442 Bus2=4_443 units=m Linecode=Line_MV_95 Length=1 
New Line.Lateral4.444 Bus1=4_443 Bus2=4_444 units=m Linecode=Line_MV_95 Length=1 
New Line.Lateral4.445 Bus1=4_444 Bus2=4_445 units=m Linecode=Line_MV_95 Length=1 
New Line.Lateral4.446 Bus1=4_445 Bus2=4_446 units=m Linecode=Line_MV_95 Length=1 
New Line.Lateral4.447 Bus1=4_446 Bus2=4_447 units=m Linecode=Line_MV_95 Length=1 
New Line.Lateral4.448 Bus1=4_447 Bus2=4_448 units=m Linecode=Line_MV_95 Length=1 
New Line.Lateral4.449 Bus1=4_448 Bus2=4_449 units=m Linecode=Line_MV_95 Length=1 
New Line.Lateral4.450 Bus1=4_449 Bus2=4_450 units=m Linecode=Line_MV_95 Length=1 
New Line.Lateral4.451 Bus1=4_450 Bus2=4_451 units=m Linecode=Line_MV_95 Length=1 
New Line.Lateral4.452 Bus1=4_451 Bus2=4_452 units=m Linecode=Line_MV_95 Length=1 
New Line.Lateral4.453 Bus1=4_452 Bus2=4_453 units=m Linecode=Line_MV_95 Length=1 
New Line.Lateral4.454 Bus1=4_453 Bus2=4_454 units=m Linecode=Line_MV_95 Length=1
New Line.Lateral4.455 Bus1=4_454 Bus2=4_455 units=m Linecode=Line_MV_95 Length=1 
New Line.Lateral4.456 Bus1=4_455 Bus2=4_456 units=m Linecode=Line_MV_95 Length=1 
New Line.Lateral4.457 Bus1=4_456 Bus2=4_457 units=m Linecode=Line_MV_95 Length=1
New Line.Lateral4.458 Bus1=4_457 Bus2=4_458 units=m Linecode=Line_MV_95 Length=1 
New Line.Lateral4.459 Bus1=4_458 Bus2=4_459 units=m Linecode=Line_MV_95 Length=1 
New Line.Lateral4.460 Bus1=4_459 Bus2=4_460 units=m Linecode=Line_MV_95 Length=1 
New Line.Lateral4.461 Bus1=4_460 Bus2=4_461 units=m Linecode=Line_MV_95 Length=1 
New Line.Lateral4.462 Bus1=4_461 Bus2=4_462 units=m Linecode=Line_MV_95 Length=1 
New Line.Lateral4.463 Bus1=4_462 Bus2=4_463 units=m Linecode=Line_MV_95 Length=1 
New Line.Lateral4.464 Bus1=4_463 Bus2=4_464 units=m Linecode=Line_MV_95 Length=1 
New Line.Lateral4.465 Bus1=4_464 Bus2=4_465 units=m Linecode=Line_MV_95 Length=1 
New Line.Lateral4.466 Bus1=4_465 Bus2=4_466 units=m Linecode=Line_MV_95 Length=1 
New Line.Lateral4.467 Bus1=4_466 Bus2=4_467 units=m Linecode=Line_MV_95 Length=1 
New Line.Lateral4.468 Bus1=4_467 Bus2=4_468 units=m Linecode=Line_MV_95 Length=1
New Line.Lateral4.469 Bus1=4_468 Bus2=4_469 units=m Linecode=Line_MV_95 Length=1 
New Line.Lateral4.470 Bus1=4_469 Bus2=4_470 units=m Linecode=Line_MV_95 Length=1 
New Line.Lateral4.471 Bus1=4_470 Bus2=4_471 units=m Linecode=Line_MV_95 Length=1 
New Line.Lateral4.472 Bus1=4_471 Bus2=4_472 units=m Linecode=Line_MV_95 Length=1 
New Line.Lateral4.473 Bus1=4_472 Bus2=4_473 units=m Linecode=Line_MV_95 Length=1 
New Line.Lateral4.474 Bus1=4_473 Bus2=4_474 units=m Linecode=Line_MV_95 Length=1 
New Line.Lateral4.475 Bus1=4_474 Bus2=4_475 units=m Linecode=Line_MV_95 Length=1 
New Line.Lateral4.476 Bus1=4_475 Bus2=4_476 units=m Linecode=Line_MV_95 Length=1 
New Line.Lateral4.477 Bus1=4_476 Bus2=4_477 units=m Linecode=Line_MV_95 Length=1
New Line.Lateral4.478 Bus1=4_477 Bus2=4_478 units=m Linecode=Line_MV_95 Length=1 
New Line.Lateral4.479 Bus1=4_478 Bus2=4_479 units=m Linecode=Line_MV_95 Length=1 
New Line.Lateral4.480 Bus1=4_479 Bus2=4_480 units=m Linecode=Line_MV_95 Length=1 
New Line.Lateral4.481 Bus1=4_480 Bus2=4_481 units=m Linecode=Line_MV_95 Length=1 
New Line.Lateral4.482 Bus1=4_481 Bus2=4_482 units=m Linecode=Line_MV_95 Length=1 
New Line.Lateral4.483 Bus1=4_482 Bus2=4_483 units=m Linecode=Line_MV_95 Length=1 
New Line.Lateral4.484 Bus1=4_483 Bus2=4_484 units=m Linecode=Line_MV_95 Length=1 
New Line.Lateral4.485 Bus1=4_484 Bus2=4_485 units=m Linecode=Line_MV_95 Length=1 
New Line.Lateral4.486 Bus1=4_485 Bus2=4_486 units=m Linecode=Line_MV_95 Length=1 
New Line.Lateral4.487 Bus1=4_486 Bus2=4_487 units=m Linecode=Line_MV_95 Length=1 
New Line.Lateral4.488 Bus1=4_487 Bus2=4_488 units=m Linecode=Line_MV_95 Length=1 
New Line.Lateral4.489 Bus1=4_488 Bus2=4_489 units=m Linecode=Line_MV_95 Length=1 
New Line.Lateral4.490 Bus1=4_489 Bus2=4_490 units=m Linecode=Line_MV_95 Length=1 
New Line.Lateral4.491 Bus1=4_490 Bus2=4_491 units=m Linecode=Line_MV_95 Length=1 
New Line.Lateral4.492 Bus1=4_491 Bus2=4_492 units=m Linecode=Line_MV_95 Length=1 
New Line.Lateral4.493 Bus1=4_492 Bus2=4_493 units=m Linecode=Line_MV_95 Length=1 
New Line.Lateral4.494 Bus1=4_493 Bus2=4_494 units=m Linecode=Line_MV_95 Length=1 
New Line.Lateral4.495 Bus1=4_494 Bus2=4_495 units=m Linecode=Line_MV_95 Length=1 
New Line.Lateral4.496 Bus1=4_495 Bus2=4_496 units=m Linecode=Line_MV_95 Length=1 
New Line.Lateral4.497 Bus1=4_496 Bus2=4_497 units=m Linecode=Line_MV_95 Length=1
New Line.Lateral4.498 Bus1=4_497 Bus2=4_498 units=m Linecode=Line_MV_95 Length=1 
New Line.Lateral4.499 Bus1=4_498 Bus2=4_499 units=m Linecode=Line_MV_95 Length=1 
New Line.Lateral4.500 Bus1=4_499 Bus2=4_500 units=m Linecode=Line_MV_95 Length=1 
New Line.Lateral4.501 Bus1=4_500 Bus2=4_501 units=m Linecode=Line_MV_95 Length=1 
New Line.Lateral4.502 Bus1=4_501 Bus2=4_502 units=m Linecode=Line_MV_95 Length=1 
New Line.Lateral4.503 Bus1=4_502 Bus2=4_503 units=m Linecode=Line_MV_95 Length=1 
New Line.Lateral4.504 Bus1=4_503 Bus2=4_504 units=m Linecode=Line_MV_95 Length=1 
New Line.Lateral4.505 Bus1=4_504 Bus2=4_505 units=m Linecode=Line_MV_95 Length=1 
New Line.Lateral4.506 Bus1=4_505 Bus2=4_506 units=m Linecode=Line_MV_95 Length=1 
New Line.Lateral4.507 Bus1=4_506 Bus2=4_507 units=m Linecode=Line_MV_95 Length=1 
New Line.Lateral4.508 Bus1=4_507 Bus2=4_508 units=m Linecode=Line_MV_95 Length=1 
New Line.Lateral4.509 Bus1=4_508 Bus2=4_509 units=m Linecode=Line_MV_95 Length=1 
New Line.Lateral4.510 Bus1=4_509 Bus2=4_510 units=m Linecode=Line_MV_95 Length=1 
New Line.Lateral4.511 Bus1=4_510 Bus2=4_511 units=m Linecode=Line_MV_95 Length=1 
New Line.Lateral4.512 Bus1=4_511 Bus2=4_512 units=m Linecode=Line_MV_95 Length=1
New Line.Lateral4.513 Bus1=4_512 Bus2=4_513 units=m Linecode=Line_MV_95 Length=1 
New Line.Lateral4.514 Bus1=4_513 Bus2=4_514 units=m Linecode=Line_MV_95 Length=1 
New Line.Lateral4_end_2 Bus1=4_514 Bus2=4_515 units=m Linecode=Line_MV_95 Length=1



New Line.Feeder4.516 Bus1=4_329 Bus2=4_516 units=m Linecode=Line_MV_185 Length=1 
New Line.Feeder4.517 Bus1=4_516 Bus2=4_517 units=m Linecode=Line_MV_185 Length=1 
New Line.Feeder4.518 Bus1=4_517 Bus2=4_518 units=m Linecode=Line_MV_185 Length=1 
New Line.Feeder4.519 Bus1=4_518 Bus2=4_519 units=m Linecode=Line_MV_185 Length=1  
New Line.Feeder4.520 Bus1=4_519 Bus2=4_520 units=m Linecode=Line_MV_185 Length=1
New Line.Feeder4.521 Bus1=4_520 Bus2=4_521 units=m Linecode=Line_MV_185 Length=1 
New Line.Feeder4.522 Bus1=4_521 Bus2=4_522 units=m Linecode=Line_MV_185 Length=1 
New Line.Feeder4.523 Bus1=4_522 Bus2=4_523 units=m Linecode=Line_MV_185 Length=1 
New Line.Feeder4.524 Bus1=4_523 Bus2=4_524 units=m Linecode=Line_MV_185 Length=1 
New Line.Feeder4.525 Bus1=4_524 Bus2=4_525 units=m Linecode=Line_MV_185 Length=1 
New Line.Feeder4.526 Bus1=4_525 Bus2=4_526 units=m Linecode=Line_MV_185 Length=1 
New Line.Feeder4.527 Bus1=4_526 Bus2=4_527 units=m Linecode=Line_MV_185 Length=1 
New Line.Feeder4.528 Bus1=4_527 Bus2=4_528 units=m Linecode=Line_MV_185 Length=1 
New Line.Feeder4.529 Bus1=4_528 Bus2=4_529 units=m Linecode=Line_MV_185 Length=1 
New Line.Feeder4.530 Bus1=4_529 Bus2=4_530 units=m Linecode=Line_MV_185 Length=1 
New Line.Feeder4.531 Bus1=4_530 Bus2=4_531 units=m Linecode=Line_MV_185 Length=1
New Line.Feeder4.532 Bus1=4_531 Bus2=4_532 units=m Linecode=Line_MV_185 Length=1 
New Line.Feeder4.533 Bus1=4_532 Bus2=4_533 units=m Linecode=Line_MV_185 Length=1 
New Line.Feeder4.534 Bus1=4_533 Bus2=4_534 units=m Linecode=Line_MV_185 Length=1 
New Line.Feeder4.535 Bus1=4_534 Bus2=4_535 units=m Linecode=Line_MV_185 Length=1 
New Line.Feeder4.536 Bus1=4_535 Bus2=4_536 units=m Linecode=Line_MV_185 Length=1 
New Line.Feeder4.537 Bus1=4_536 Bus2=4_537 units=m Linecode=Line_MV_185 Length=1 
New Line.Feeder4.538 Bus1=4_537 Bus2=4_538 units=m Linecode=Line_MV_185 Length=1 
New Line.Feeder4.539 Bus1=4_538 Bus2=4_539 units=m Linecode=Line_MV_185 Length=1 
New Line.Feeder4.540 Bus1=4_539 Bus2=4_540 units=m Linecode=Line_MV_185 Length=1 
New Line.Feeder4.541 Bus1=4_540 Bus2=4_541 units=m Linecode=Line_MV_185 Length=1 
New Line.Feeder4.542 Bus1=4_541 Bus2=4_542 units=m Linecode=Line_MV_185 Length=1
New Line.Feeder4.543 Bus1=4_542 Bus2=4_543 units=m Linecode=Line_MV_185 Length=1 
New Line.Feeder4.544 Bus1=4_543 Bus2=4_544 units=m Linecode=Line_MV_185 Length=1 
New Line.Feeder4.545 Bus1=4_544 Bus2=4_545 units=m Linecode=Line_MV_185 Length=1 
New Line.Feeder4.546 Bus1=4_545 Bus2=4_546 units=m Linecode=Line_MV_185 Length=1 
New Line.Feeder4.547 Bus1=4_546 Bus2=4_547 units=m Linecode=Line_MV_185 Length=1 
New Line.Feeder4.548 Bus1=4_547 Bus2=4_548 units=m Linecode=Line_MV_185 Length=1 
New Line.Feeder4.549 Bus1=4_548 Bus2=4_549 units=m Linecode=Line_MV_185 Length=1 
New Line.Feeder4.550 Bus1=4_549 Bus2=4_550 units=m Linecode=Line_MV_185 Length=1
New Line.Feeder4.551 Bus1=4_550 Bus2=4_551 units=m Linecode=Line_MV_185 Length=1
New Line.Feeder4.552 Bus1=4_551 Bus2=4_552 units=m Linecode=Line_MV_185 Length=1 
New Line.Feeder4.553 Bus1=4_552 Bus2=4_553 units=m Linecode=Line_MV_185 Length=1 
New Line.Feeder4.554 Bus1=4_553 Bus2=4_554 units=m Linecode=Line_MV_185 Length=1 
New Line.Feeder4.555 Bus1=4_554 Bus2=4_555 units=m Linecode=Line_MV_185 Length=1 
New Line.Feeder4.556 Bus1=4_555 Bus2=4_556 units=m Linecode=Line_MV_185 Length=1 
New Line.Feeder4.557 Bus1=4_556 Bus2=4_557 units=m Linecode=Line_MV_185 Length=1 
New Line.Feeder4.558 Bus1=4_557 Bus2=4_558 units=m Linecode=Line_MV_185 Length=1 
New Line.Feeder4.559 Bus1=4_558 Bus2=4_559 units=m Linecode=Line_MV_185 Length=1 
New Line.Feeder4.560 Bus1=4_559 Bus2=4_560 units=m Linecode=Line_MV_185 Length=1
New Line.Feeder4.561 Bus1=4_560 Bus2=4_561 units=m Linecode=Line_MV_185 Length=1 
New Line.Feeder4.562 Bus1=4_561 Bus2=4_562 units=m Linecode=Line_MV_185 Length=1 
New Line.Feeder4.563 Bus1=4_562 Bus2=4_563 units=m Linecode=Line_MV_185 Length=1 
New Line.Feeder4.564 Bus1=4_563 Bus2=4_564 units=m Linecode=Line_MV_185 Length=1 
New Line.Feeder4.565 Bus1=4_564 Bus2=4_565 units=m Linecode=Line_MV_185 Length=1 
New Line.Feeder4.566 Bus1=4_565 Bus2=4_566 units=m Linecode=Line_MV_185 Length=1 
New Line.Feeder4.567 Bus1=4_566 Bus2=4_567 units=m Linecode=Line_MV_185 Length=1 
New Line.Feeder4.568 Bus1=4_567 Bus2=4_568 units=m Linecode=Line_MV_185 Length=1 
New Line.Feeder4.569 Bus1=4_568 Bus2=4_569 units=m Linecode=Line_MV_185 Length=1  
New Line.Feeder4.570 Bus1=4_569 Bus2=4_570 units=m Linecode=Line_MV_185 Length=1
New Line.Feeder4.571 Bus1=4_570 Bus2=4_571 units=m Linecode=Line_MV_185 Length=1 
New Line.Feeder4.572 Bus1=4_571 Bus2=4_572 units=m Linecode=Line_MV_185 Length=1 
New Line.Feeder4.573 Bus1=4_572 Bus2=4_573 units=m Linecode=Line_MV_185 Length=1 
New Line.Feeder4.574 Bus1=4_573 Bus2=4_574 units=m Linecode=Line_MV_185 Length=1 
New Line.Feeder4.575 Bus1=4_574 Bus2=4_575 units=m Linecode=Line_MV_185 Length=1 
New Line.Feeder4.576 Bus1=4_575 Bus2=4_576 units=m Linecode=Line_MV_185 Length=1 
New Line.Feeder4.577 Bus1=4_576 Bus2=4_577 units=m Linecode=Line_MV_185 Length=1 
New Line.Feeder4.578 Bus1=4_577 Bus2=4_578 units=m Linecode=Line_MV_185 Length=1 
New Line.Feeder4.579 Bus1=4_578 Bus2=4_579 units=m Linecode=Line_MV_185 Length=1 
New Line.Feeder4.580 Bus1=4_579 Bus2=4_580 units=m Linecode=Line_MV_185 Length=1
New Line.Feeder4.581 Bus1=4_580 Bus2=4_581 units=m Linecode=Line_MV_185 Length=1
New Line.Feeder4.582 Bus1=4_581 Bus2=4_582 units=m Linecode=Line_MV_185 Length=1 
New Line.Feeder4.583 Bus1=4_582 Bus2=4_583 units=m Linecode=Line_MV_185 Length=1 
New Line.Feeder4.584 Bus1=4_583 Bus2=4_584 units=m Linecode=Line_MV_185 Length=1 
New Line.Feeder4.585 Bus1=4_584 Bus2=4_585 units=m Linecode=Line_MV_185 Length=1 
New Line.Feeder4.586 Bus1=4_585 Bus2=4_586 units=m Linecode=Line_MV_185 Length=1 
New Line.Feeder4.587 Bus1=4_586 Bus2=4_587 units=m Linecode=Line_MV_185 Length=1
New Line.Feeder4.588 Bus1=4_587 Bus2=4_588 units=m Linecode=Line_MV_185 Length=1 
New Line.Feeder4.589 Bus1=4_588 Bus2=4_589 units=m Linecode=Line_MV_185 Length=1  
New Line.Feeder4.590 Bus1=4_589 Bus2=4_590 units=m Linecode=Line_MV_185 Length=1
New Line.Feeder4.591 Bus1=4_590 Bus2=4_591 units=m Linecode=Line_MV_185 Length=1 
New Line.Feeder4.592 Bus1=4_591 Bus2=4_592 units=m Linecode=Line_MV_185 Length=1 
New Line.Feeder4.593 Bus1=4_592 Bus2=4_593 units=m Linecode=Line_MV_185 Length=1 
New Line.Feeder4.594 Bus1=4_593 Bus2=4_594 units=m Linecode=Line_MV_185 Length=1 
New Line.Feeder4.595 Bus1=4_594 Bus2=4_595 units=m Linecode=Line_MV_185 Length=1 
New Line.Feeder4.596 Bus1=4_595 Bus2=4_596 units=m Linecode=Line_MV_185 Length=1 
New Line.Feeder4.597 Bus1=4_596 Bus2=4_597 units=m Linecode=Line_MV_185 Length=1 
New Line.Feeder4.598 Bus1=4_597 Bus2=4_598 units=m Linecode=Line_MV_185 Length=1 
New Line.Feeder4.599 Bus1=4_598 Bus2=4_599 units=m Linecode=Line_MV_185 Length=1 
New Line.Feeder4.600 Bus1=4_599 Bus2=4_600 units=m Linecode=Line_MV_185 Length=1
New Line.Feeder4.601 Bus1=4_600 Bus2=4_601 units=m Linecode=Line_MV_185 Length=1
New Line.Feeder4.602 Bus1=4_601 Bus2=4_602 units=m Linecode=Line_MV_185 Length=1 
New Line.Feeder4.603 Bus1=4_602 Bus2=4_603 units=m Linecode=Line_MV_185 Length=1 
New Line.Feeder4.604 Bus1=4_603 Bus2=4_604 units=m Linecode=Line_MV_185 Length=1 
New Line.Feeder4.605 Bus1=4_604 Bus2=4_605 units=m Linecode=Line_MV_185 Length=1 
New Line.Feeder4.606 Bus1=4_605 Bus2=4_606 units=m Linecode=Line_MV_185 Length=1 
New Line.Feeder4.607 Bus1=4_606 Bus2=4_607 units=m Linecode=Line_MV_185 Length=1 
New Line.Feeder4.608 Bus1=4_607 Bus2=4_608 units=m Linecode=Line_MV_185 Length=1 
New Line.Feeder4.609 Bus1=4_608 Bus2=4_609 units=m Linecode=Line_MV_185 Length=1 
New Line.Feeder4_end Bus1=4_609 Bus2=4_610 units=m Linecode=Line_MV_185 Length=1


New Line.Lateral4_start_3 Bus1=4_609 Bus2=4_611 units=m Linecode=Line_MV_95 Length=1 
New Line.Lateral4.612 Bus1=4_611 Bus2=4_612 units=m Linecode=Line_MV_95 Length=1 
New Line.Lateral4.613 Bus1=4_612 Bus2=4_613 units=m Linecode=Line_MV_95 Length=1 
New Line.Lateral4.614 Bus1=4_613 Bus2=4_614 units=m Linecode=Line_MV_95 Length=1 
New Line.Lateral4.615 Bus1=4_614 Bus2=4_615 units=m Linecode=Line_MV_95 Length=1 
New Line.Lateral4.616 Bus1=4_615 Bus2=4_616 units=m Linecode=Line_MV_95 Length=1 
New Line.Lateral4.617 Bus1=4_616 Bus2=4_617 units=m Linecode=Line_MV_95 Length=1
New Line.Lateral4.618 Bus1=4_617 Bus2=4_618 units=m Linecode=Line_MV_95 Length=1 
New Line.Lateral4.619 Bus1=4_618 Bus2=4_619 units=m Linecode=Line_MV_95 Length=1 
New Line.Lateral4.620 Bus1=4_619 Bus2=4_620 units=m Linecode=Line_MV_95 Length=1 
New Line.Lateral4.621 Bus1=4_620 Bus2=4_621 units=m Linecode=Line_MV_95 Length=1 
New Line.Lateral4.622 Bus1=4_621 Bus2=4_622 units=m Linecode=Line_MV_95 Length=1 
New Line.Lateral4.623 Bus1=4_622 Bus2=4_623 units=m Linecode=Line_MV_95 Length=1 
New Line.Lateral4.624 Bus1=4_623 Bus2=4_624 units=m Linecode=Line_MV_95 Length=1
New Line.Lateral4.625 Bus1=4_624 Bus2=4_625 units=m Linecode=Line_MV_95 Length=1 
New Line.Lateral4.626 Bus1=4_625 Bus2=4_626 units=m Linecode=Line_MV_95 Length=1 
New Line.Lateral4.627 Bus1=4_626 Bus2=4_627 units=m Linecode=Line_MV_95 Length=1 
New Line.Lateral4.628 Bus1=4_627 Bus2=4_628 units=m Linecode=Line_MV_95 Length=1 
New Line.Lateral4.629 Bus1=4_628 Bus2=4_639 units=m Linecode=Line_MV_95 Length=1 
New Line.Lateral4.630 Bus1=4_629 Bus2=4_630 units=m Linecode=Line_MV_95 Length=1 
New Line.Lateral4.631 Bus1=4_630 Bus2=4_631 units=m Linecode=Line_MV_95 Length=1 
New Line.Lateral4.632 Bus1=4_631 Bus2=4_632 units=m Linecode=Line_MV_95 Length=1 
New Line.Lateral4.633 Bus1=4_632 Bus2=4_633 units=m Linecode=Line_MV_95 Length=1 
New Line.Lateral4.634 Bus1=4_633 Bus2=4_634 units=m Linecode=Line_MV_95 Length=1 
New Line.Lateral4.635 Bus1=4_634 Bus2=4_635 units=m Linecode=Line_MV_95 Length=1 
New Line.Lateral4.636 Bus1=4_635 Bus2=4_636 units=m Linecode=Line_MV_95 Length=1 
New Line.Lateral4.637 Bus1=4_636 Bus2=4_637 units=m Linecode=Line_MV_95 Length=1 
New Line.Lateral4.638 Bus1=4_637 Bus2=4_638 units=m Linecode=Line_MV_95 Length=1 
New Line.Lateral4.639 Bus1=4_638 Bus2=4_639 units=m Linecode=Line_MV_95 Length=1 
New Line.Lateral4.640 Bus1=4_639 Bus2=4_640 units=m Linecode=Line_MV_95 Length=1 
New Line.Lateral4.641 Bus1=4_640 Bus2=4_641 units=m Linecode=Line_MV_95 Length=1 
New Line.Lateral4.642 Bus1=4_641 Bus2=4_642 units=m Linecode=Line_MV_95 Length=1 
New Line.Lateral4.643 Bus1=4_642 Bus2=4_643 units=m Linecode=Line_MV_95 Length=1 
New Line.Lateral4.644 Bus1=4_643 Bus2=4_644 units=m Linecode=Line_MV_95 Length=1 
New Line.Lateral4.645 Bus1=4_644 Bus2=4_645 units=m Linecode=Line_MV_95 Length=1 
New Line.Lateral4.646 Bus1=4_645 Bus2=4_646 units=m Linecode=Line_MV_95 Length=1 
New Line.Lateral4.647 Bus1=4_646 Bus2=4_647 units=m Linecode=Line_MV_95 Length=1 
New Line.Lateral4.648 Bus1=4_647 Bus2=4_648 units=m Linecode=Line_MV_95 Length=1 
New Line.Lateral4.649 Bus1=4_648 Bus2=4_649 units=m Linecode=Line_MV_95 Length=1 
New Line.Lateral4.650 Bus1=4_649 Bus2=4_650 units=m Linecode=Line_MV_95 Length=1 
New Line.Lateral4.651 Bus1=4_650 Bus2=4_651 units=m Linecode=Line_MV_95 Length=1 
New Line.Lateral4.652 Bus1=4_651 Bus2=4_652 units=m Linecode=Line_MV_95 Length=1 
New Line.Lateral4.653 Bus1=4_652 Bus2=4_653 units=m Linecode=Line_MV_95 Length=1 
New Line.Lateral4.654 Bus1=4_653 Bus2=4_654 units=m Linecode=Line_MV_95 Length=1
New Line.Lateral4.655 Bus1=4_654 Bus2=4_655 units=m Linecode=Line_MV_95 Length=1 
New Line.Lateral4.656 Bus1=4_655 Bus2=4_656 units=m Linecode=Line_MV_95 Length=1 
New Line.Lateral4.657 Bus1=4_656 Bus2=4_657 units=m Linecode=Line_MV_95 Length=1
New Line.Lateral4.658 Bus1=4_657 Bus2=4_658 units=m Linecode=Line_MV_95 Length=1 
New Line.Lateral4.659 Bus1=4_658 Bus2=4_659 units=m Linecode=Line_MV_95 Length=1 
New Line.Lateral4.660 Bus1=4_659 Bus2=4_660 units=m Linecode=Line_MV_95 Length=1 
New Line.Lateral4.661 Bus1=4_660 Bus2=4_661 units=m Linecode=Line_MV_95 Length=1 
New Line.Lateral4.662 Bus1=4_661 Bus2=4_662 units=m Linecode=Line_MV_95 Length=1 
New Line.Lateral4.663 Bus1=4_662 Bus2=4_663 units=m Linecode=Line_MV_95 Length=1 
New Line.Lateral4.664 Bus1=4_663 Bus2=4_664 units=m Linecode=Line_MV_95 Length=1 
New Line.Lateral4.665 Bus1=4_664 Bus2=4_665 units=m Linecode=Line_MV_95 Length=1 
New Line.Lateral4.666 Bus1=4_665 Bus2=4_666 units=m Linecode=Line_MV_95 Length=1 
New Line.Lateral4.667 Bus1=4_666 Bus2=4_667 units=m Linecode=Line_MV_95 Length=1 
New Line.Lateral4.668 Bus1=4_667 Bus2=4_668 units=m Linecode=Line_MV_95 Length=1
New Line.Lateral4.669 Bus1=4_668 Bus2=4_669 units=m Linecode=Line_MV_95 Length=1 
New Line.Lateral4.670 Bus1=4_669 Bus2=4_670 units=m Linecode=Line_MV_95 Length=1 
New Line.Lateral4.671 Bus1=4_670 Bus2=4_671 units=m Linecode=Line_MV_95 Length=1 
New Line.Lateral4.672 Bus1=4_671 Bus2=4_672 units=m Linecode=Line_MV_95 Length=1 
New Line.Lateral4.673 Bus1=4_672 Bus2=4_673 units=m Linecode=Line_MV_95 Length=1 
New Line.Lateral4.674 Bus1=4_673 Bus2=4_674 units=m Linecode=Line_MV_95 Length=1 
New Line.Lateral4.675 Bus1=4_674 Bus2=4_675 units=m Linecode=Line_MV_95 Length=1 
New Line.Lateral4.676 Bus1=4_675 Bus2=4_676 units=m Linecode=Line_MV_95 Length=1 
New Line.Lateral4.677 Bus1=4_676 Bus2=4_677 units=m Linecode=Line_MV_95 Length=1
New Line.Lateral4.678 Bus1=4_677 Bus2=4_678 units=m Linecode=Line_MV_95 Length=1 
New Line.Lateral4.679 Bus1=4_678 Bus2=4_679 units=m Linecode=Line_MV_95 Length=1 
New Line.Lateral4.680 Bus1=4_679 Bus2=4_680 units=m Linecode=Line_MV_95 Length=1 
New Line.Lateral4.681 Bus1=4_680 Bus2=4_681 units=m Linecode=Line_MV_95 Length=1 
New Line.Lateral4.682 Bus1=4_681 Bus2=4_682 units=m Linecode=Line_MV_95 Length=1 
New Line.Lateral4.683 Bus1=4_682 Bus2=4_683 units=m Linecode=Line_MV_95 Length=1 
New Line.Lateral4.684 Bus1=4_683 Bus2=4_684 units=m Linecode=Line_MV_95 Length=1 
New Line.Lateral4.685 Bus1=4_684 Bus2=4_685 units=m Linecode=Line_MV_95 Length=1 
New Line.Lateral4.686 Bus1=4_685 Bus2=4_686 units=m Linecode=Line_MV_95 Length=1 
New Line.Lateral4.687 Bus1=4_686 Bus2=4_687 units=m Linecode=Line_MV_95 Length=1 
New Line.Lateral4.688 Bus1=4_687 Bus2=4_688 units=m Linecode=Line_MV_95 Length=1 
New Line.Lateral4.689 Bus1=4_688 Bus2=4_689 units=m Linecode=Line_MV_95 Length=1 
New Line.Lateral4.690 Bus1=4_689 Bus2=4_690 units=m Linecode=Line_MV_95 Length=1 
New Line.Lateral4.691 Bus1=4_690 Bus2=4_691 units=m Linecode=Line_MV_95 Length=1 
New Line.Lateral4.692 Bus1=4_691 Bus2=4_692 units=m Linecode=Line_MV_95 Length=1 
New Line.Lateral4.693 Bus1=4_692 Bus2=4_693 units=m Linecode=Line_MV_95 Length=1 
New Line.Lateral4.694 Bus1=4_693 Bus2=4_694 units=m Linecode=Line_MV_95 Length=1 
New Line.Lateral4.695 Bus1=4_694 Bus2=4_695 units=m Linecode=Line_MV_95 Length=1 
New Line.Lateral4.696 Bus1=4_695 Bus2=4_696 units=m Linecode=Line_MV_95 Length=1 
New Line.Lateral4.697 Bus1=4_696 Bus2=4_697 units=m Linecode=Line_MV_95 Length=1
New Line.Lateral4.698 Bus1=4_697 Bus2=4_698 units=m Linecode=Line_MV_95 Length=1 
New Line.Lateral4.699 Bus1=4_698 Bus2=4_699 units=m Linecode=Line_MV_95 Length=1 
New Line.Lateral4.700 Bus1=4_699 Bus2=4_700 units=m Linecode=Line_MV_95 Length=1 
New Line.Lateral4.701 Bus1=4_700 Bus2=4_701 units=m Linecode=Line_MV_95 Length=1 
New Line.Lateral4.702 Bus1=4_701 Bus2=4_702 units=m Linecode=Line_MV_95 Length=1 
New Line.Lateral4.703 Bus1=4_702 Bus2=4_703 units=m Linecode=Line_MV_95 Length=1 
New Line.Lateral4.704 Bus1=4_703 Bus2=4_704 units=m Linecode=Line_MV_95 Length=1 
New Line.Lateral4.705 Bus1=4_704 Bus2=4_705 units=m Linecode=Line_MV_95 Length=1 
New Line.Lateral4.706 Bus1=4_705 Bus2=4_706 units=m Linecode=Line_MV_95 Length=1 
New Line.Lateral4.707 Bus1=4_706 Bus2=4_707 units=m Linecode=Line_MV_95 Length=1 
New Line.Lateral4.708 Bus1=4_707 Bus2=4_708 units=m Linecode=Line_MV_95 Length=1 
New Line.Lateral4.709 Bus1=4_708 Bus2=4_709 units=m Linecode=Line_MV_95 Length=1 
New Line.Lateral4.710 Bus1=4_709 Bus2=4_710 units=m Linecode=Line_MV_95 Length=1 
New Line.Lateral4.711 Bus1=4_709 Bus2=4_711 units=m Linecode=Line_MV_95 Length=1 
New Line.Lateral4.712 Bus1=4_711 Bus2=4_712 units=m Linecode=Line_MV_95 Length=1 
New Line.Lateral4.713 Bus1=4_712 Bus2=4_713 units=m Linecode=Line_MV_95 Length=1 
New Line.Lateral4.714 Bus1=4_713 Bus2=4_714 units=m Linecode=Line_MV_95 Length=1 
New Line.Lateral4.715 Bus1=4_714 Bus2=4_715 units=m Linecode=Line_MV_95 Length=1 
New Line.Lateral4.716 Bus1=4_715 Bus2=4_716 units=m Linecode=Line_MV_95 Length=1 
New Line.Lateral4.717 Bus1=4_716 Bus2=4_717 units=m Linecode=Line_MV_95 Length=1
New Line.Lateral4.718 Bus1=4_717 Bus2=4_718 units=m Linecode=Line_MV_95 Length=1 
New Line.Lateral4.719 Bus1=4_718 Bus2=4_719 units=m Linecode=Line_MV_95 Length=1 
New Line.Lateral4.720 Bus1=4_719 Bus2=4_720 units=m Linecode=Line_MV_95 Length=1 
New Line.Lateral4.721 Bus1=4_720 Bus2=4_721 units=m Linecode=Line_MV_95 Length=1 
New Line.Lateral4.722 Bus1=4_721 Bus2=4_722 units=m Linecode=Line_MV_95 Length=1 
New Line.Lateral4.723 Bus1=4_722 Bus2=4_723 units=m Linecode=Line_MV_95 Length=1 
New Line.Lateral4.724 Bus1=4_723 Bus2=4_724 units=m Linecode=Line_MV_95 Length=1
New Line.Lateral4.725 Bus1=4_724 Bus2=4_725 units=m Linecode=Line_MV_95 Length=1 
New Line.Lateral4.726 Bus1=4_725 Bus2=4_726 units=m Linecode=Line_MV_95 Length=1 
New Line.Lateral4.727 Bus1=4_726 Bus2=4_727 units=m Linecode=Line_MV_95 Length=1 
New Line.Lateral4.728 Bus1=4_727 Bus2=4_728 units=m Linecode=Line_MV_95 Length=1 
New Line.Lateral4.729 Bus1=4_728 Bus2=4_739 units=m Linecode=Line_MV_95 Length=1 
New Line.Lateral4.730 Bus1=4_729 Bus2=4_730 units=m Linecode=Line_MV_95 Length=1 
New Line.Lateral4.731 Bus1=4_730 Bus2=4_731 units=m Linecode=Line_MV_95 Length=1 
New Line.Lateral4.732 Bus1=4_731 Bus2=4_732 units=m Linecode=Line_MV_95 Length=1 
New Line.Lateral4.733 Bus1=4_732 Bus2=4_733 units=m Linecode=Line_MV_95 Length=1 
...